# CIF file generated by openbabel 2.3.90, see http://openbabel.sf.net
data_I
_chemical_name_common 'Supercell generated structure. E_col = 0'
_cell_length_a 5.4495
_cell_length_b 5.4495
_cell_length_c 10.726
_cell_angle_alpha 90
_cell_angle_beta 90
_cell_angle_gamma 90
_space_group_name_H-M_alt 'P 1'
_space_group_name_Hall 'P 1'
loop_
    _symmetry_equiv_pos_as_xyz
    x,y,z
loop_
    _atom_site_label
    _atom_site_type_symbol
    _atom_site_fract_x
    _atom_site_fract_y
    _atom_site_fract_z
    _atom_site_occupancy
    Cu      Cu   0.00000   0.50000   0.25000   1.000
    Cu      Cu   0.50000   0.00000   0.75000   1.000
    Cu      Cu   0.00000   0.50000   0.75000   1.000
    Cu      Cu   0.50000   0.00000   0.25000   1.000
    Fe      Fe   0.00000   0.00000   0.00000   1.000
    Fe      Fe   0.50000   0.50000   0.50000   1.000
    S       S    0.75581   0.75581   0.87012   1.000
    Se      Se   0.24419   0.24419   0.87012   1.000
    Se      Se   0.75581   0.24419   0.12988   1.000
    Se      Se   0.24419   0.75581   0.12988   1.000
    S       S    0.25581   0.25581   0.37012   1.000
    Se      Se   0.74419   0.74419   0.37012   1.000
    Se      Se   0.25581   0.74419   0.62988   1.000
    Se      Se   0.74419   0.25581   0.62988   1.000
    Sn      Sn   0.00000   0.00000   0.50000   1.000
    Sn      Sn   0.50000   0.50000   0.00000   1.000
